Circuit: * Z:\home\lab\projects\ltspice_exos\jfet.asc

Direct Newton iteration for .op point succeeded.
.step x=0
.step x=-0.5
.step x=-1
.step x=-1.5
.step x=-2

Date: Fri Dec 18 20:22:19 2015
Total elapsed time: 0.433 seconds.

tnom = 27
temp = 27
method = modified trap
totiter = 2048
traniter = 2044
tranpoints = 1018
accept = 1018
rejected = 0
matrix size = 8
fillins = 0
solver = Normal
Matrix Compiler1: 326 bytes object code size  0.4/0.4/[0.3]
Matrix Compiler2: 560 bytes object code size  0.4/0.4/[0.4]


